Using: /usr/bin/time -p /tools/solsoft2/hspice/A-2007.09/hspice/linux/hspice prueba.sp
